! Continuous isopycnal mode + initialization
USE_REGRIDDING = True
REGRIDDING_COORDINATE_MODE = "Z*" 
REMAPPING_SCHEME = "PPM_IH4"
MIN_THICKNESS = 0.1
!#override DAYMAX = 50.0
#override KHTH = 0.0
#override MIN_THICKNESS = 1e-12
#override MASS_WEIGHT_IN_PRESSURE_GRADIENT = True
!#override ANALYTIC_FV_PGF = False
#override PRESSURE_RECONSTRUCTION_SCHEME = 1
