! Z* coordinate regridding + initialization
USE_REGRIDDING = True
REGRIDDING_COORDINATE_MODE = "Z*"
REMAPPING_SCHEME = "PQM_IH4IH3"

#override MASS_WEIGHT_IN_PRESSURE_GRADIENT = True
#override DAYMAX = 50
#override MIN_THICKNESS = 1.0E-12
