#override USE_REGRIDDING = False
!#override REGRIDDING_COORDINATE_MODE = "SIGMA_SHELF_ZSTAR" 
!#override REMAPPING_SCHEME = "PPM_IH4"
#override COORD_CONFIG = "linear"
LIGHTEST_DENSITY = 1027.1524    !   [kg m-3] default = 1027.0
                                ! The reference potential density used for the surface interface.
DENSITY_RANGE = 2.0             !   [kg m-3] default = 2.0
                                ! The range of reference potential densities across all interfaces.

!#override MIN_THICKNESS = 0.1

#override NIGLOBAL = 240                  !
!#override NIGLOBAL =  120                 !
#override NJGLOBAL = 40                   !
#override NIHALO=4
#override NJHALO=4
#override NK=25

#override GRID_CONFIG = "cartesian"       !
#override AXIS_UNITS = "k"                ! default = "degrees"
#override SOUTHLAT = 0.0                  !   [k]
#override LENLAT = 80.0                   !   [k]
#override WESTLON = 320.0                 !   [k] default = 0.0
#override LENLON = 480.0                  !   [k]

#override TOPO_CONFIG = "ISOMIP"
!#override TOPO_CONFIG = "flat"
!#override TOPO_CONFIG = "file"
!#override TOPO_FILE = "topogX.nc"

#override MAXIMUM_DEPTH = 720.0           !   [m]

#override DT = 300.0
#override DTTHERM = 300.0

#override ICE_PROFILE_CONFIG = "FILE"     !
!#override ICE_THICKNESS_FILE = "shelfX.nc" ! default = "ice_shelf_h.nc"
#override ICE_THICKNESS_FILE = "Ocean1_3D.nc" ! default = "ice_shelf_h.nc"
#override ICE_THICKNESS_VARNAME = "thick" ! default = "h_shelf"
#override ICE_AREA_VARNAME = "area"       ! default = "area_shelf_h"


#override TS_CONFIG = "fit" !"ISOMIP"

#override ICE_SHELF = True
!#override TRIM_IC_FOR_P_SURF =  False      !   [Boolean] default = False
#override DYNAMIC_SURFACE_PRESSURE = True

#override DT_FORCING = 300.0
#override DTBT = -0.9

#override IC_OUTPUT_FILE = "MOM_IC.nc"

!#override VERBOSITY = 9

#override DRAG_BG_VEL = 0.15 ! Default is 0.00
!#override KV_ML_INVZ2 = 1e-3
#override FIXED_DEPTH_LOTW_ML = True
#override HMIX_FIXED = 20.0

#override SHELF_THREE_EQN = True
#override DEBUG_IS = True

!#override LAPLACIAN = False
#override KH = 6.0 ! ISOMIP Asay-Davis protocol, original is 0
!#override KH = 10
!#override KH_BG_MIN = 10.0    
!#override KH_VEL_SCALE = 10.0
!#override SMAGORINSKY_KH = True
!#override BIHARMONIC = True
!#override AH = 10.0
!#override AH_VEL_SCALE = 10.0
!#override AH_TIME_SCALE = 10.0

!!!!!!!!!!!!!!!!!!!!!!!!!!!!!!!!!!!!!!!!!!!!!!!!!!!!

#override MASS_WEIGHT_IN_PRESSURE_GRADIENT = True
#override BT_THICK_SCHEME = "FROM_BT_CONT"
#override BBL_THICK_MIN = 2.0
#override MIN_THICKNESS =  1e-4

!!!!!!!!!!!!!!!!!  Thickness from  file??   !!!!!!!!
!! STEP ONE !!
#override THICKNESS_CONFIG =  "ISOMIP"
!#override TRIM_IC_FOR_P_SURF = True
!#override SURFACE_PRESSURE_FILE = "Ocean1_3D.nc" !
                               ! The initial condition file for the surface pressure exerted by ice.
!SURFACE_PRESSURE_VAR = "thick"  !   [Pa] default = ""
                                ! The initial condition variable for the surface pressure exerted by ice.
!SURFACE_PRESSURE_SCALE = 8820.0 !   [file dependent] default = 1.0
                                ! A scaling factor to convert SURFACE_PRESSURE_VAR from file
                                ! SURFACE_PRESSURE_FILE into a surface pressure.
!#override ICE_SHELF_INITIALIZATION_Z_TOLERANCE = 1.0e-20
!#override DAYMAX = 1

!! STEP TWO !!
!#override THICKNESS_CONFIG = "thickness_file"     ! default = "uniform"
!#override THICKNESS_FILE = "thickness_ISOMIPsigmazstar_pdiag.nc"     ! default = "uniform"
!#override REMAP_AFTER_INITIALIZATION = False
!#override HACK_MODE = True

!#override DAYMAX = 30 ! 0.05 ! 5 ! 30 !0.05
