
#override USE_REGRIDDING = True
#override REGRIDDING_COORDINATE_MODE = "ZSTAR"!SIGMA"! "ZSTAR"!"RHO"!SIGMA"!ZSTAR"! "ZSTAR" 
#override REMAPPING_SCHEME = "PPM_IH4"
! turn on to use layer
#override T_REF = -1.9                    !   [degC]
#override FIT_SALINITY = True             ! If true, accept the prescribed temperature and fit the
!#override COORD_CONFIG = "linear"         !
!#override LIGHTEST_DENSITY = 1033.8    !   [kg m-3] default = 1027.0
!#override DENSITY_RANGE = 0.75       !   [kg m-3] default = 2.0
! modify minthick
#override MIN_THICKNESS = 1E-12 !3 !12 !3 !12 !3 !12
! Domain info

#override TOPO_CONFIG = "flat"
#override MAXIMUM_DEPTH = 4000.0           !   [m]
!!#override MAXIMUM_DEPTH = 3999.12944

! Ice info
ICE_PROFILE_CONFIG = "FILE"     !
!!!!!ICE_THICKNESS_FILE = "seamountice.nc"
ICE_THICKNESS_FILE = "fatseamountice.nc" ! default = "ice_shelf_h.nc"
!ICE_THICKNESS_FILE = "flatice0.nc"
ICE_THICKNESS_VARNAME = "D" ! default = "h_shelf"
ICE_AREA_VARNAME = "Ah"       ! default = "area_shelf_h"

#override TS_CONFIG = "ISOMIP"
#override ICE_SHELF = True

#override IC_OUTPUT_FILE = "MOM_IC.nc"

!! Run first !!

#override THICKNESS_CONFIG = "ISOMIP"
!ISOMIP_S_SUR = 35.0
!ISOMIP_S_BOT = 35.0
#override TRIM_IC_FOR_P_SURF = True
SURFACE_PRESSURE_FILE = "fatseamountice.nc" !
!SURFACE_PRESSURE_FILE = "flatice0.nc"
                                ! The initial condition file for the surface pressure exerted by ice.
SURFACE_PRESSURE_VAR = "D"  !   [Pa] default = ""
                                ! The initial condition variable for the surface pressure exerted by ice.
SURFACE_PRESSURE_SCALE = 8820.0 !   [file dependent] default = 1.0
                                ! A scaling factor to convert SURFACE_PRESSURE_VAR from file
                                ! SURFACE_PRESSURE_FILE into a surface pressure.

!! After running above, run make_thickness.ipynb and then uncomment below and comment above and run again !!

!#override THICKNESS_CONFIG = "thickness_file"
! dont forget to edit file name below
!#override THICKNESS_FILE = "sigma-isomip-symshelf-mwipg-nodrag.nc" ! "zstar-isomip-symshelf_v2.nc"  ! This is defined in make_thickness.ipynb
!#override HACK_MODE = True 

! increase drag in min thickness layers
DRAG_BG_VEL_SHELF = 0.05
!!#override VERBOSITY = 9
!#override KV = 1E-2
!#override CDRAG = 0.3
!#override CDRAG_SHELF = 0.3

!change vert resolution
!#override NK = 1000

!add nonbouss
!#override BOUSSINESQ = False

! add fake rayleigh drag that grows, everywhere
!RAYLEIGH_DRAG_MINRATE = 2e-3
!RAYLEIGH_DRAG_MAXRATE = 2e-2
!RAYLEIGH_DRAG_TIME = 86400

!try some stuff
!REGRID_ACCELERATE_INIT = True
!REGRID_ACCELERATE_ITERATIONS = 20
!TRIMMING_USES_REMAPPING = True
!#override DT = 450
!#override DT_THERM = 450
!#override DT_FORCING = 900
!#override DTBT = -0.9
!#override CHANNEL_DRAG = True
!#override ANALYTIC_FV_PGF = False
!#override DYNAMIC_SURFACE_PRESSURE = True

!#override EQN_OF_STATE = "WRIGHT"
!#override MASS_WEIGHT_IN_PRESSURE_GRADIENT = True
!#override REMAPPING_ANSWER_DATE = 20181231
! might help w init?
!#override REMAP_BOUNDARY_EXTRAP = True

!obcs copied from circle_obcs on MOM6-examples
! === module MOM_open_boundary ===
! Controls where open boundaries are located, what kind of boundary condition to impose, and what data to apply,
! if any.
!OBC_NUMBER_OF_SEGMENTS = 2      ! default = 0
                                ! The number of open boundary segments.
OBC_ZERO_BIHARMONIC = True      !   [Boolean] default = False
                                ! If true, zeros the Laplacian of flow on open boundaries in the biharmonic
                                ! viscosity term.
!OBC_SEGMENT_001 = "J=N,I=N:0,FLATHER,ORLANSKI" !
                                ! Documentation needs to be dynamic?????
!OBC_SEGMENT_002 = "J=0,I=0:N,FLATHER,ORLANSKI" !
                                ! Documentation needs to be dynamic?????
OBC_SEGMENT_001 = "I=N,J=0:N,FLATHER,ORLANSKI" !
                                ! Documentation needs to be dynamic?????
OBC_SEGMENT_002 = "I=0,J=N:0,FLATHER,ORLANSKI" !
                                ! Documentation needs to be dynamic?????
OBC_SEGMENT_001_DATA = "U=value:0.0,V=value:0.0,SSH=value:0.0" !
                                ! OBC segment docs
OBC_SEGMENT_002_DATA = "U=value:0.0,V=value:0.0,SSH=value:0.0" !
                                ! OBC segment docs
!OBC_SEGMENT_003_DATA = "U=value:0.0,V=value:0.0,SSH=value:0.0" !
                                ! OBC segment docs
!OBC_SEGMENT_004_DATA = "U=value:0.0,V=value:0.0,SSH=value:0.0" !
                                ! OBC segment docs
OBC_RADIATION_MAX = 10.0        !   [nondim] default = 1.0
                                ! The maximum magnitude of the baroclinic radiation velocity (or speed of
                                ! characteristics), in gridpoints per timestep.  This is only used if one of the
                                ! open boundary segments is using Orlanski.
!REMAP_AFTER_INITIALIZATION = True!False
TRIMMING_USES_REMAPPING = True
TRIM_IC_Z_TOLERANCE = 1e-13
!#override BOUSSINESQ = False
!SEMI_BOUSSINESQ = False
!#override KV_ML_INVZ2=1e-2
!#override CORRECTION_INTXPA = True
#override CORRECTION_INTXPA_5PT = True
!#override REGRID_TIME_SCALE = 90000
!#override DAYMAX = 0.00016 !17361111

! MAKE Y-DXN SEAMOUNT
!#override NIGLOBAL = 4
!#override NJGLOBAL = 40
!#override LENLON = 20
!#override WESTLON = 30
!#override LENLAT = 200
!#override SOUTHLAT = 0
!#override TOPO_CONFIG = "file"
!#override TOPO_FILE = "toposeamounty.nc"
!SEAMOUNT_Y_LENGTH_SCALE = 20
!#override ICE_THICKNESS_FILE = "fatseamounticey.nc"
!#override SURFACE_PRESSURE_FILE = "fatseamounticey.nc" !
!#override ICE_THICKNESS_FILE = "fatseamountice3D.nc"
!#override SURFACE_PRESSURE_FILE = "fatseamountice3D.nc" !

!#override NJHALO = 2
!#override NIHALO = 2
!TOPO_VARNAME = "D"
!#override SEAMOUNT_Y_LENGTH_SCALE = 20
!#override SEAMOUNT_X_LENGTH_SCALE = 0

! DOUBLE X SEAMOUNT DOMAIN
!#override NIGLOBAL = 80
!#override LENLON = 400

!#override TS_RANGE_S_LIGHT = 33.8        !   [PSU] default = 34.0
                                ! The initial lightest salinities when COORD_CONFIG is set to ts_range.
!#override TS_RANGE_S_DENSE = 34.55        !   [PSU] default = 34.0
                                ! The initial densest salinities when COORD_CONFIG is set to ts_range.
! change horiz res
!#override NIGLOBAL = 20
!#override SURFACE_PRESSURE_FILE = "fatseamountice-ni20.nc"
!#override ICE_THICKNESS_FILE = "fatseamountice-ni20.nc"
