#override USE_REGRIDDING = True
#override REGRIDDING_COORDINATE_MODE = "SIGMA_SHELF_ZSTAR" 
#override REMAPPING_SCHEME = "PPM_IH4"
#override MIN_THICKNESS = 0.1
#override NIGLOBAL = 240                  !
#override NJGLOBAL = 40                   !
#override GRID_CONFIG = "cartesian"       !
#override AXIS_UNITS = "k"                ! default = "degrees"
#override SOUTHLAT = 0.0                  !   [k]
#override LENLAT = 80.0                   !   [k]
#override WESTLON = 320.0                 !   [k] default = 0.0
#override LENLON = 480.0                  !   [k]
#override TOPO_CONFIG = "flat"
#override TOPO_FILE = "topog1.nc"
#override MAXIMUM_DEPTH = 720.0           !   [m]
#override DT = 300.0
#override DTTHERM = 300.0
#override ICE_PROFILE_CONFIG = "FILE"     !
#override ICE_THICKNESS_FILE = "ice_shelf.nc" ! default = "ice_shelf_h.nc"
#override ICE_THICKNESS_VARNAME = "thick" ! default = "h_shelf"
#override ICE_AREA_VARNAME = "area"       ! default = "area_shelf_h"
#override THICKNESS_CONFIG = "ISOMIP"     ! default = "uniform"
#override TS_CONFIG = "linear"
#override ICE_SHELF = True
#override TRIM_IC_FOR_P_SURF =  False      !   [Boolean] default = False
#override DYNAMIC_SURFACE_PRESSURE = True
#override DT_FORCING = 300.0
#override DTBT = -0.9
#override IC_OUTPUT_FILE = "MOM_IC.nc"
#override VERBOSITY = 9
#override NIHALO=4
#override NJHALO=4
#override NK=25
#override TS_FILE = "ts.nc"
#override DAYMAX = 1

#override T_TOP = -1.9
T_RANGE = 0 !#override T_BOT = -1.9
#override S_TOP = 33.8
S_RANGE = 0.75 !#override S_BOT = 34.55
